data_example_structure_1_atom

_audit_creation_method RASPA-1.0
_audit_creation_date 2025-2-5
_audit_author_name 'Bene B'

_cell_length_a    100
_cell_length_b    100
_cell_length_c    100
_cell_angle_alpha 90
_cell_angle_beta  90
_cell_angle_gamma 90
_cell_volume      2.7e+07

_symmetry_cell_setting          triclinic
_symmetry_space_group_name_Hall 'P 1'
_symmetry_space_group_name_H-M  'P 1'
_symmetry_Int_Tables_number     1

_symmetry_equiv_pos_as_xyz 'x,y,z'

loop_
_atom_site_label
_atom_site_type_symbol
_atom_site_fract_x
_atom_site_fract_y
_atom_site_fract_z
_atom_site_charge
C        C      0.000000000000     0.000000000000     0.000000000000     0.37       
C        C      0.000000000000     0.000000000000     0.333333333333     0.37       
C        C      0.000000000000     0.000000000000     0.666666666667     0.37       
C        C      0.000000000000     0.333333333333     0.000000000000     0.37       
C        C      0.000000000000     0.333333333333     0.333333333333     0.37       
C        C      0.000000000000     0.333333333333     0.666666666667     0.37       
C        C      0.000000000000     0.666666666667     0.000000000000     0.37       
C        C      0.000000000000     0.666666666667     0.333333333333     0.37       
C        C      0.000000000000     0.666666666667     0.666666666667     0.37       
C        C      0.333333333333     0.000000000000     0.000000000000     0.37       
C        C      0.333333333333     0.000000000000     0.333333333333     0.37       
C        C      0.333333333333     0.000000000000     0.666666666667     0.37       
C        C      0.333333333333     0.333333333333     0.000000000000     0.37       
C        C      0.333333333333     0.333333333333     0.333333333333     0.37       
C        C      0.333333333333     0.333333333333     0.666666666667     0.37       
C        C      0.333333333333     0.666666666667     0.000000000000     0.37       
C        C      0.333333333333     0.666666666667     0.333333333333     0.37       
C        C      0.333333333333     0.666666666667     0.666666666667     0.37       
C        C      0.666666666667     0.000000000000     0.000000000000     0.37       
C        C      0.666666666667     0.000000000000     0.333333333333     0.37       
C        C      0.666666666667     0.000000000000     0.666666666667     0.37       
C        C      0.666666666667     0.333333333333     0.000000000000     0.37       
C        C      0.666666666667     0.333333333333     0.333333333333     0.37       
C        C      0.666666666667     0.333333333333     0.666666666667     0.37       
C        C      0.666666666667     0.666666666667     0.000000000000     0.37       
C        C      0.666666666667     0.666666666667     0.333333333333     0.37       
C        C      0.666666666667     0.666666666667     0.666666666667     0.37       


